# some parameters

 Title: C=[N+](C)[N-]C.COC(=O)[C@@]1(OC)C#CC(Br)(Br)CCCC1

0 1
C           -0.69048   0.30215   7.26883
O           -0.41869  -1.01591   6.76914
C           -1.46774  -1.79402   6.51593
O           -2.61511  -1.47010   6.73439
C           -1.04303  -3.15681   5.93053
O           -2.20251  -3.96949   5.79349
C           -3.06507  -3.70060   4.69512
C           -0.11151  -3.89400   6.94562
C            1.03679  -4.74649   6.39036
C            0.75191  -6.05462   5.63364
C            0.04679  -6.05992   4.26435
C            0.49619  -5.00569   3.24015
Br           2.46718  -5.12728   2.92605
Br          -0.41538  -5.43181   1.49961
C            0.13032  -3.69005   3.70086
C           -0.34960  -3.02672   4.62373
C           -0.12030  -0.54450   3.73162
N            0.73925  -1.09792   2.88765
C            2.16003  -1.09660   3.25559
N            0.46199  -1.90487   1.89405
C           -0.92579  -1.86327   1.49629
H            0.28501   0.78609   7.39111
H           -1.21199   0.24533   8.23489
H           -1.30694   0.86151   6.55080
H           -3.25006  -2.62342   4.56489
H           -2.66237  -4.11231   3.75538
H           -4.01905  -4.19894   4.91927
H            0.34088  -3.14071   7.60370
H           -0.78754  -4.50056   7.56821
H            1.63296  -5.03887   7.27098
H            1.70415  -4.10772   5.79270
H            1.72532  -6.55454   5.50657
H            0.15446  -6.71837   6.28163
H            0.16646  -7.05902   3.82008
H           -1.03218  -5.88999   4.39678
H            0.28286   0.08212   4.52153
H           -1.18168  -0.53658   3.50669
H            2.37073  -2.01496   3.82218
H            2.75720  -1.09116   2.33747
H            2.38757  -0.21609   3.86657
H           -1.63108  -2.21210   2.27204
H           -1.23100  -0.83062   1.22857
H           -1.04937  -2.50336   0.61448

some basis functions

