!Put Keywords Here, check Charge and Multiplicity.
#

 Title

0  1
C           4.40549        -0.58591        -0.00000
O           3.12691        -1.20031         0.00000
C           2.09747        -0.36319         0.00000
N           2.20839         0.94663        -0.00000
O           0.95902         1.45815        -0.00000
C           0.06922         0.45397         0.00000
C          -1.37500         0.77331         0.00000
O          -2.09755        -0.34776         0.00000
C          -3.51986        -0.17267        -0.00000
C          -4.17088        -1.54205        -0.00000
O          -1.83552         1.88339         0.00000
C           0.72761        -0.74674         0.00000
H           5.12845        -1.39862        -0.00000
H           4.53028         0.03818         0.88706
H           4.53027         0.03819        -0.88706
H          -3.80165         0.40589        -0.88655
H          -3.80165         0.40589         0.88655
H          -5.25106        -1.43016        -0.00000
H          -3.87110        -2.09999         0.88278
H          -3.87110        -2.09999        -0.88278
H           0.32154        -1.73407         0.00000

1 2 1.0 13 1.0 14 1.0 15 1.0 
2 3 1.0 
3 4 2.0 12 1.0 
4 5 1.0 
5 6 1.0 
6 7 1.0 12 2.0 
7 8 1.0 11 2.0 
8 9 1.0 
9 10 1.0 16 1.0 17 1.0 
10 18 1.0 19 1.0 20 1.0 
11 
12 21 1.0 
13 
14 
15 
16 
17 
18 
19 
20 
21 
