%mem=60GB
%nprocshared=32
%chk=C1.chk
#p B3LYP def2svp opt freq EmpiricalDispersion=GD3BJ pop=nboread 

 Title: C1

0 1
C            1.43164  -1.06496  -0.00131
C            1.85564   0.30583  -0.00220
H            2.07601  -1.93767  -0.00249
H            2.88020   0.66232  -0.00422
C           -0.40983   0.25555   0.00219
N            0.69858   1.09729  -0.00010
N            0.02989  -1.06496   0.00141
C            0.66215   2.56683  -0.00027
C            0.64235   3.26393  -1.20863
C            0.64726   3.26433   1.20754
C            0.60835   4.65823  -1.20908
C            0.61226   4.65903   1.20727
C            0.59294   5.35604  -0.00076
H            0.59338   5.20777  -2.16149
H            0.60012   5.20870   2.15974
H            0.56608   6.45539  -0.00137
C           -0.82981  -2.25736   0.00314
C           -1.23535  -2.82312   1.21224
C           -1.24021  -2.82311  -1.20394
C           -2.05056  -3.95478   1.21416
C           -2.05648  -3.95453  -1.20219
C           -2.46157  -4.52050   0.00658
H           -2.36974  -4.40115   2.16714
H           -2.38024  -4.40015  -2.15407
H           -3.10438  -5.41274   0.00834
C            0.66886   2.49508   2.54148
C           -0.50790   2.91650   3.38358
C            1.97834   2.74496   3.24451
H            0.57963   1.40417   2.29322
H           -1.46464   2.72156   2.84184
H           -0.52578   2.35040   4.34622
H           -0.45218   4.00655   3.62044
H            2.83333   2.42506   2.60153
H            2.09891   3.83060   3.47765
H            2.02521   2.17444   4.20359
C            0.65988   2.49346  -2.54192
C            1.96121   2.75453  -3.25599
C           -0.52757   2.90316  -3.37472
H            0.58285   1.40203  -2.29182
H            2.82431   2.44314  -2.61966
H            2.00547   2.18337  -4.21477
H            2.07001   3.84091  -3.49131
H           -1.47801   2.70011  -2.82500
H           -0.48368   3.99347  -3.61304
H           -0.54810   2.33591  -4.33665
C           -0.79290  -2.19864  -2.53869
C           -1.99692  -1.97501  -3.41723
C            0.22229  -3.09632  -3.19823
H           -0.31786  -1.21101  -2.29660
H           -2.73305  -1.30798  -2.90731
H           -1.69724  -1.49783  -4.38157
H           -2.50060  -2.94455  -3.64902
H            1.10328  -3.24643  -2.52883
H           -0.22354  -4.09515  -3.42421
H            0.57973  -2.64838  -4.15693
C           -0.78112  -2.19879   2.54471
C            0.22389  -3.10546   3.20759
C           -1.98250  -1.95835   3.42238
H           -0.29480  -1.21756   2.29899
H            1.10310  -3.26792   2.53868
H            0.58647  -2.65806   4.16458
H           -0.23307  -4.09835   3.43731
H           -2.71110  -1.28495   2.91008
H           -2.49705  -2.92137   3.65760
H           -1.67739  -1.48112   4.38501
Pd          -2.36837   0.86103   0.00550
Cl          -2.48612   0.46794   2.23811
C           -4.59584   1.45442  -1.50526
C           -4.77932   0.60923   0.68364
C           -4.72031   0.44013  -0.64202
H           -4.53848   2.46009  -1.14439
C           -4.53512   1.17466  -3.01842
H           -4.87921  -0.23964   1.32733
H           -4.72663   1.59335   1.10031
H           -4.77535  -0.55516  -1.03094
C           -4.60992  -0.13665  -3.48888
C           -4.40545   2.23220  -3.91861
C           -4.55438  -0.39032  -4.85920
H           -4.71137  -0.97023  -2.77888
C           -4.35088   1.97870  -5.28943
H           -4.34666   3.26580  -3.54799
C           -4.42518   0.66769  -5.75983
H           -4.61271  -1.42394  -5.23006
H           -4.24905   2.81275  -5.99898
H           -4.38147   0.46743  -6.84024





