%nprocshared=28
%mem=60GB
%chk=naphthalen-2-ol.chk
%oldchk=naphthalen-2-ol.chk
#p opt freq b3lyp/6-311+g(d,p) em=gd3bj

Title: naphthalen-2-ol

0 1
 C                 -4.06174454    3.61912313   -0.42506664
 C                 -2.68894354    3.61912313   -0.42506664
 C                 -1.96700554    4.84424413   -0.42506664
 C                 -2.68487554    6.06811013   -0.42469664
 C                 -4.10629154    6.03873713   -0.42454264
 C                 -4.77779654    4.84076213   -0.42483264
 H                  0.00206746    3.91927913   -0.42530964
 H                 -4.62247554    2.67277713   -0.42514664
 H                 -2.12415454    2.67480113   -0.42529464
 C                 -0.54527854    4.87378713   -0.42532964
 C                 -1.96212554    7.29283613   -0.42458164
 H                 -4.65353254    6.99319313   -0.42446064
 H                 -5.87743354    4.81439513   -0.42473064
 C                 -0.58926454    7.29290413   -0.42485464
 C                  0.12674746    6.07101213   -0.42531364
 H                  1.22637546    6.09747713   -0.42549564
 H                 -2.51101304    8.21132535   -0.42432881
 O                  0.13965979    8.52317616   -0.42508605
 H                  0.56994023    8.64087768    0.42497577

