%chk=Template-Rp.chk
%mem=300GB
%nprocshared=68
#p opt=(calcfc,ts,noeigen,maxstep=5) freq b3lyp def2svp em=gd3bj

Title Card Required

0 1
 Fe                -3.07261600    0.64111800    0.03492600
 C                  3.18672900   -1.96585600   -0.48868100
 Pd                 0.42026600   -1.39750000   -0.25119000
 C                 -2.11849800   -2.38138200    0.72162400
 H                 -5.71076500    0.98907600    1.02176000
 H                 -3.79858000    0.09210800    2.71816100
 H                 -1.52566200    1.49248500    2.22611000
 C                  1.41053800    1.29402700   -0.37231400
 O                  4.20496400   -2.57211700   -0.75053200
 C                 -2.46441100   -1.27184100   -0.21482500
 O                  0.19588300    1.62631300   -0.18371100
 C                 -2.02782000    0.39254200   -1.74670400
 C                 -3.38280600   -0.01388600   -1.91214800
 C                 -3.64591100   -1.06823800   -0.98617200
 H                 -1.53993200    1.20916700   -2.27520600
 H                 -4.10072600    0.41889300   -2.60713300
 H                 -4.58752400   -1.60278500   -0.86768900
 H                 -0.52516700    0.51869400   -0.18820500
 C                 -1.42502200   -0.37110800   -0.68481200
 C                  3.17559300   -0.42472700   -0.39438300
 O                  2.05233100   -2.56188500   -0.18434600
 C                 -2.75920200    2.56847100    0.69164300
 C                 -4.12172900    2.40483100    0.29676200
 C                 -4.69249800    1.36696700    1.09524300
 C                 -3.68283500    0.89351500    1.99009700
 C                 -2.48892600    1.63623700    1.74056900
 H                 -2.03472500    3.24715100    0.24805800
 N                  1.78779000    0.03595900   -0.44383100
 H                  2.23641271    2.09808968   -0.50005689
 H                  3.67209084   -0.12558453    0.50500773
 H                  3.74286800   -0.02525500   -1.25041500
 H                 -1.88413600   -1.99954700    1.72559200
 H                 -1.22744824   -2.84451468    0.35224825
 H                 -2.92964500   -3.12575900    0.81694100
 H                 -4.62805500    2.95217400   -0.49636400

